electric-grid/reference/ieee-96rts/IEEE RTS 96 bus (1).EPC
title
!
comments
!
solution parameters
tap    1    tcul  enabled/disabled
phas   1    ps    enabled/disabled
area   1    area  enabled/disabled
svd    1    svd   enabled/disabled
dctap  1    dc    enabled/disabled
gcd    0    gcd   enabled/disabled
jump  0.000200    jumper threshold
toler   0.1000    newton tolerance
sbase 100.0000    system mva base
!
bus data  [73]               ty  vsched   volt     angle    ar zone  vmax   vmin   date_in date_out pid L own st  latitude  longitude island    sdmon   vmax1      vmin1      dvmax
    101 "Abel        " 138.0000 :  2 1.00000 1.223630  40.57849  11   11 1.1000 0.9000   400101   391231   0 0   1 0    0.00000    0.00000 0    0.00000    0.00000    0.00000
    102 "Adams       " 138.0000 :  2 1.00000 1.229112  40.47574  11   12 1.1000 0.9000   400101   391231   0 0   1 0    0.00000    0.00000 0    0.00000    0.00000    0.00000
    103 "Adler       " 138.0000 :  1 1.057850 1.057850  42.20222  11   11 1.1000 0.9000   400101   391231   0 0   1 0    0.00000    0.00000 0    0.00000    0.00000    0.00000
    104 "Agricola    " 138.0000 :  1 1.148801 1.148801  39.22883  11   11 1.1000 0.9000   400101   391231   0 0   1 0    0.00000    0.00000 0    0.00000    0.00000    0.00000
    105 "Alken       " 138.0000 :  1 1.214073 1.214073  39.01649  11   11 1.1000 0.9000   400101   391231   0 0   1 0    0.00000    0.00000 0    0.00000    0.00000    0.00000
    106 "Alber       " 138.0000 :  1 1.343523 1.343523  36.26053  11   12 1.1000 0.9000   400101   391231   0 0   1 0    0.00000    0.00000 0    0.00000    0.00000    0.00000
    107 "Alder       " 138.0000 :  2 1.00000 1.249477  41.33445  11   12 1.1000 0.9000   400101   391231   0 0   1 0    0.00000    0.00000 0    0.00000    0.00000    0.00000
    108 "Alger       " 138.0000 :  1 1.192819 1.192819  38.73328  11   12 1.1000 0.9000   400101   391231   0 0   1 0    0.00000    0.00000 0    0.00000    0.00000    0.00000
    109 "Ali         " 138.0000 :  1 1.111362 1.111362  41.42106  11   13 1.1000 0.9000   400101   391231   0 0   1 0    0.00000    0.00000 0    0.00000    0.00000    0.00000
    110 "Allen       " 138.0000 :  1 1.225740 1.225740  39.71470  11   13 1.1000 0.9000   400101   391231   0 0   1 0    0.00000    0.00000 0    0.00000    0.00000    0.00000
    111 "Anna        " 230.0000 :  1 1.104528 1.104528  45.23515  11   13 1.1000 0.9000   400101   391231   0 0   1 0    0.00000    0.00000 0    0.00000    0.00000    0.00000
    112 "Archer      " 230.0000 :  1 1.108235 1.108235  46.69015  11   13 1.1000 0.9000   400101   391231   0 0   1 0    0.00000    0.00000 0    0.00000    0.00000    0.00000
    113 "Arne        " 230.0000 :  2 1.00000 1.118486  49.22574  12   14 1.1000 0.9000   400101   391231   0 0   1 0    0.00000    0.00000 0    0.00000    0.00000    0.00000
    114 "Arnold      " 230.0000 :  2 1.00000 1.040342  47.12169  12   16 1.1000 0.9000   400101   391231   0 0   1 0    0.00000    0.00000 0    0.00000    0.00000    0.00000
    115 "Arthur      " 230.0000 :  2 1.00000 0.973660  56.22546  12   16 1.1000 0.9000   400101   391231   0 0   1 0    0.00000    0.00000 0    0.00000    0.00000    0.00000
    116 "Asser       " 230.0000 :  2 1.00000 0.980767  56.33909  12   16 1.1000 0.9000   400101   391231   0 0   1 0    0.00000    0.00000 0    0.00000    0.00000    0.00000
    117 "Aston       " 230.0000 :  1 0.976346 0.976346  61.60330  12   17 1.1000 0.9000   400101   391231   0 0   1 0    0.00000    0.00000 0    0.00000    0.00000    0.00000
    118 "Astor       " 230.0000 :  2 1.00000 0.976277  63.26502  12   17 1.1000 0.9000   400101   391231   0 0   1 0    0.00000    0.00000 0    0.00000    0.00000    0.00000
    119 "Attar       " 230.0000 :  1 0.976581 0.976581  54.96732  12   15 1.1000 0.9000   400101   391231   0 0   1 0    0.00000    0.00000 0    0.00000    0.00000    0.00000
    120 "Attila      " 230.0000 :  1 0.983537 0.983537  55.89727  12   15 1.1000 0.9000   400101   391231   0 0   1 0    0.00000    0.00000 0    0.00000    0.00000    0.00000
    121 "Attlee      " 230.0000 :  2 1.00000 0.979806  64.24286  12   17 1.1000 0.9000   400101   391231   0 0   1 0    0.00000    0.00000 0    0.00000    0.00000    0.00000
    122 "Aubrey      " 230.0000 :  2 1.00000 0.983696  70.62426  12   17 1.1000 0.9000   400101   391231   0 0   1 0    0.00000    0.00000 0    0.00000    0.00000    0.00000
    123 "Austen      " 230.0000 :  0 1.00000 1.000000  58.50646  12   15 1.1000 0.9000   400101   391231   0 0   1 0    0.00000    0.00000 0    0.00000    0.00000    0.00000
    124 "Avery       " 230.0000 :  1 0.993987 0.993987  50.44224  12   16 1.1000 0.9000   400101   391231   0 0   1 0    0.00000    0.00000 0    0.00000    0.00000    0.00000
    201 "Bach        " 138.0000 :  2 1.00000 1.545223  39.69625  21   21 1.1000 0.9000   400101   391231   0 0   1 0    0.00000    0.00000 0    0.00000    0.00000    0.00000
    202 "Bacon       " 138.0000 :  2 1.00000 1.553076  39.60189  21   22 1.1000 0.9000   400101   391231   0 0   1 0    0.00000    0.00000 0    0.00000    0.00000    0.00000
    203 "Baffin      " 138.0000 :  1 1.322960 1.322960  41.56800  21   21 1.1000 0.9000   400101   391231   0 0   1 0    0.00000    0.00000 0    0.00000    0.00000    0.00000
    204 "Bailey      " 138.0000 :  1 1.456339 1.456339  39.05663  21   21 1.1000 0.9000   400101   391231   0 0   1 0    0.00000    0.00000 0    0.00000    0.00000    0.00000
    205 "Baln        " 138.0000 :  1 1.539738 1.539738  38.77816  21   21 1.1000 0.9000   400101   391231   0 0   1 0    0.00000    0.00000 0    0.00000    0.00000    0.00000
    206 "Bajer       " 138.0000 :  1 1.710890 1.710890  36.50212  21   22 1.1000 0.9000   400101   391231   0 0   1 0    0.00000    0.00000 0    0.00000    0.00000    0.00000
    207 "Baker       " 138.0000 :  2 1.00000 1.488745  40.40609  21   22 1.1000 0.9000   400101   391231   0 0   1 0    0.00000    0.00000 0    0.00000    0.00000    0.00000
    208 "Balch       " 138.0000 :  1 1.465377 1.465377  38.68314  21   22 1.1000 0.9000   400101   391231   0 0   1 0    0.00000    0.00000 0    0.00000    0.00000    0.00000
    209 "Balzac      " 138.0000 :  1 1.397470 1.397470  40.66252  21   23 1.1000 0.9000   400101   391231   0 0   1 0    0.00000    0.00000 0    0.00000    0.00000    0.00000
    210 "Banks       " 138.0000 :  1 1.549684 1.549684  39.28407  21   23 1.1000 0.9000   400101   391231   0 0   1 0    0.00000    0.00000 0    0.00000    0.00000    0.00000
    211 "Bardeen     " 230.0000 :  1 1.384302 1.384302  43.10342  21   23 1.1000 0.9000   400101   391231   0 0   1 0    0.00000    0.00000 0    0.00000    0.00000    0.00000
    212 "Barkla      " 230.0000 :  1 1.395634 1.395634  43.99086  21   23 1.1000 0.9000   400101   391231   0 0   1 0    0.00000    0.00000 0    0.00000    0.00000    0.00000
    213 "Barlow      " 230.0000 :  2 1.00000 1.377742  45.41780  22   24 1.1000 0.9000   400101   391231   0 0   1 0    0.00000    0.00000 0    0.00000    0.00000    0.00000
    214 "Barry       " 230.0000 :  2 1.00000 1.307139  44.93912  22   26 1.1000 0.9000   400101   391231   0 0   1 0    0.00000    0.00000 0    0.00000    0.00000    0.00000
    215 "Barton      " 230.0000 :  2 1.00000 1.207499  51.69985  22   26 1.1000 0.9000   400101   391231   0 0   1 0    0.00000    0.00000 0    0.00000    0.00000    0.00000
    216 "Basov       " 230.0000 :  2 1.00000 1.219082  51.79676  22   26 1.1000 0.9000   400101   391231   0 0   1 0    0.00000    0.00000 0    0.00000    0.00000    0.00000
    217 "Bates       " 230.0000 :  1 1.193085 1.193085  56.13909  22   27 1.1000 0.9000   400101   391231   0 0   1 0    0.00000    0.00000 0    0.00000    0.00000    0.00000
    218 "Bayle       " 230.0000 :  2 1.00000 1.212193  57.29099  22   27 1.1000 0.9000   400101   391231   0 0   1 0    0.00000    0.00000 0    0.00000    0.00000    0.00000
    219 "Bede        " 230.0000 :  1 1.226468 1.226468  50.61763  22   25 1.1000 0.9000   400101   391231   0 0   1 0    0.00000    0.00000 0    0.00000    0.00000    0.00000
    220 "Beethoven   " 230.0000 :  1 1.256278 1.256278  51.27441  22   25 1.1000 0.9000   400101   391231   0 0   1 0    0.00000    0.00000 0    0.00000    0.00000    0.00000
    221 "Behring     " 230.0000 :  2 1.00000 1.229345  58.82178  22   27 1.1000 0.9000   400101   391231   0 0   1 0    0.00000    0.00000 0    0.00000    0.00000    0.00000
    222 "Bell        " 230.0000 :  2 1.00000 1.223113  62.57172  22   27 1.1000 0.9000   400101   391231   0 0   1 0    0.00000    0.00000 0    0.00000    0.00000    0.00000
    223 "Bloch       " 230.0000 :  2 1.00000 1.278997  52.60038  22   25 1.1000 0.9000   400101   391231   0 0   1 0    0.00000    0.00000 0    0.00000    0.00000    0.00000
    224 "Bordet      " 230.0000 :  1 1.243444 1.243444  47.44672  22   26 1.1000 0.9000   400101   391231   0 0   1 0    0.00000    0.00000 0    0.00000    0.00000    0.00000
    301 "Cabell      " 138.0000 :  2 1.00000 0.782871  22.20281  31   31 1.1000 0.9000   400101   391231   0 0   1 0    0.00000    0.00000 0    0.00000    0.00000    0.00000
    302 "Cabot       " 138.0000 :  2 1.00000 0.784008  22.03010  31   32 1.1000 0.9000   400101   391231   0 0   1 0    0.00000    0.00000 0    0.00000    0.00000    0.00000
    303 "Caesar      " 138.0000 :  1 0.719201 0.719201  24.29408  31   31 1.1000 0.9000   400101   391231   0 0   1 0    0.00000    0.00000 0    0.00000    0.00000    0.00000
    304 "Caine       " 138.0000 :  1 0.725092 0.725092  17.95040  31   31 1.1000 0.9000   400101   391231   0 0   1 0    0.00000    0.00000 0    0.00000    0.00000    0.00000
    305 "Calvin      " 138.0000 :  1 0.761949 0.761949  17.77403  31   31 1.1000 0.9000   400101   391231   0 0   1 0    0.00000    0.00000 0    0.00000    0.00000    0.00000
    306 "Camus       " 138.0000 :  1 0.826595 0.826595  12.82804  31   32 1.1000 0.9000   400101   391231   0 0   1 0    0.00000    0.00000 0    0.00000    0.00000    0.00000
    307 "Carew       " 138.0000 :  2 1.00000 0.749138  22.83980  31   32 1.1000 0.9000   400101   391231   0 0   1 0    0.00000    0.00000 0    0.00000    0.00000    0.00000
    308 "Carrel      " 138.0000 :  1 0.708001 0.708001  15.71142  31   32 1.1000 0.9000   400101   391231   0 0   1 0    0.00000    0.00000 0    0.00000    0.00000    0.00000
    309 "Carter      " 138.0000 :  1 0.727335 0.727335  22.32479  31   33 1.1000 0.9000   400101   391231   0 0   1 0    0.00000    0.00000 0    0.00000    0.00000    0.00000
    310 "Caruso      " 138.0000 :  1 0.778728 0.778728  18.92238  31   33 1.1000 0.9000   400101   391231   0 0   1 0    0.00000    0.00000 0    0.00000    0.00000    0.00000
    311 "Cary        " 230.0000 :  1 0.762514 0.762514  31.06674  31   33 1.1000 0.9000   400101   391231   0 0   1 0    0.00000    0.00000 0    0.00000    0.00000    0.00000
    312 "Caxton      " 230.0000 :  1 0.765375 0.765375  34.00246  31   33 1.1000 0.9000   400101   391231   0 0   1 0    0.00000    0.00000 0    0.00000    0.00000    0.00000
    313 "Cecil       " 230.0000 :  2 1.00000 0.795430  37.74334  32   34 1.1000 0.9000   400101   391231   0 0   1 0    0.00000    0.00000 0    0.00000    0.00000    0.00000
    314 "Chain       " 230.0000 :  2 1.00000 0.773381  35.12383  32   36 1.1000 0.9000   400101   391231   0 0   1 0    0.00000    0.00000 0    0.00000    0.00000    0.00000
    315 "Chase       " 230.0000 :  2 1.00000 0.836450  50.65450  32   36 1.1000 0.9000   400101   391231   0 0   1 0    0.00000    0.00000 0    0.00000    0.00000    0.00000
    316 "Chifa       " 230.0000 :  2 1.00000 0.846516  50.38208  32   36 1.1000 0.9000   400101   391231   0 0   1 0    0.00000    0.00000 0    0.00000    0.00000    0.00000
    317 "Chuhsi      " 230.0000 :  1 0.919696 0.919696  56.61201  32   37 1.1000 0.9000   400101   391231   0 0   1 0    0.00000    0.00000 0    0.00000    0.00000    0.00000
    318 "Clark       " 230.0000 :  2 1.00000 0.962099  58.05680  32   37 1.1000 0.9000   400101   391231   0 0   1 0    0.00000    0.00000 0    0.00000    0.00000    0.00000
    319 "Clay        " 230.0000 :  1 0.836640 0.836640  48.34671  32   35 1.1000 0.9000   400101   391231   0 0   1 0    0.00000    0.00000 0    0.00000    0.00000    0.00000
    320 "Clive       " 230.0000 :  1 0.847597 0.847597  50.52819  32   35 1.1000 0.9000   400101   391231   0 0   1 0    0.00000    0.00000 0    0.00000    0.00000    0.00000
    321 "Cobb        " 230.0000 :  2 1.00000 0.939186  61.66841  32   37 1.1000 0.9000   400101   391231   0 0   1 0    0.00000    0.00000 0    0.00000    0.00000    0.00000
    322 "Cole        " 230.0000 :  2 1.00000 0.932482  67.95980  32   37 1.1000 0.9000   400101   391231   0 0   1 0    0.00000    0.00000 0    0.00000    0.00000    0.00000
    323 "Comte       " 230.0000 :  2 1.00000 0.865680  53.83509  32   35 1.1000 0.9000   400101   391231   0 0   1 0    0.00000    0.00000 0    0.00000    0.00000    0.00000
    324 "Curie       " 230.0000 :  1 0.764836 0.764836  41.78121  32   36 1.1000 0.9000   400101   391231   0 0   1 0    0.00000    0.00000 0    0.00000    0.00000    0.00000
    325 "Curtiss     " 230.0000 :  1 0.873089 0.873089  54.87031  32   35 1.1000 0.9000   400101   391231   0 0   1 0    0.00000    0.00000 0    0.00000    0.00000    0.00000
branch data  [  110]                                          ck  se  ------------long_id_------------    st resist   react   charge   rate1  rate2  rate3  rate4 aloss  lngth 
    101 "Abel        " 138.00     102 "Adams       " 138.00  "1 "  1 "                                " :  1  0.003000  0.014000  0.461000  175.0    0.0    0.0    0.0 0.000    1.0 /
  11   12  0.000000  0.000000  1.000000   400101   391231   0 1  0    0.0    0.0    0.0    0.0   1 1.000   0 0.000   0 0.000   0 0.000   0 0.000   0 0.000   0 0.000   0 0.000   0 0.000   0 0.000   0 0.000   0 0.000  0 0 
    101 "Abel        " 138.00     103 "Adler       " 138.00  "1 "  1 "                                " :  1  0.055000  0.211000  0.057000  175.0    0.0    0.0    0.0 0.000    1.0 /
  11   11  0.000000  0.000000  1.000000   400101   391231   0 1  0    0.0    0.0    0.0    0.0   1 1.000   0 0.000   0 0.000   0 0.000   0 0.000   0 0.000   0 0.000   0 0.000   0 0.000   0 0.000   0 0.000   0 0.000  0 0 
    101 "Abel        " 138.00     105 "Alken       " 138.00  "1 "  1 "                                " :  1  0.022000  0.085000  0.023000  175.0    0.0    0.0    0.0 0.000    1.0 /
  11   11  0.000000  0.000000  1.000000   400101   391231   0 1  0    0.0    0.0    0.0    0.0   1 1.000   0 0.000   0 0.000   0 0.000   0 0.000   0 0.000   0 0.000   0 0.000   0 0.000   0 0.000   0 0.000   0 0.000  0 0 
    102 "Adams       " 138.00     104 "Agricola    " 138.00  "1 "  1 "                                " :  1  0.033000  0.127000  0.034000  175.0    0.0    0.0    0.0 0.000    1.0 /
  11   11  0.000000  0.000000  1.000000   400101   391231   0 1  0    0.0    0.0    0.0    0.0   1 1.000   0 0.000   0 0.000   0 0.000   0 0.000   0 0.000   0 0.000   0 0.000   0 0.000   0 0.000   0 0.000   0 0.000  0 0 
    102 "Adams       " 138.00     106 "Alber       " 138.00  "1 "  1 "                                " :  1  0.050000  0.192000  0.052000  175.0    0.0    0.0    0.0 0.000    1.0 /
  11   12  0.000000  0.000000  1.000000   400101   391231   0 1  0    0.0    0.0    0.0    0.0   1 1.000   0 0.000   0 0.000   0 0.000   0 0.000   0 0.000   0 0.000   0 0.000   0 0.000   0 0.000   0 0.000   0 0.000  0 0 
    103 "Adler       " 138.00     109 "Ali         " 138.00  "1 "  1 "                                " :  1  0.031000  0.119000  0.032000  500.0    0.0    0.0    0.0 0.000    1.0 /
  11   13  0.000000  0.000000  1.000000   400101   391231   0 1  0    0.0    0.0    0.0    0.0   1 1.000   0 0.000   0 0.000   0 0.000   0 0.000   0 0.000   0 0.000   0 0.000   0 0.000   0 0.000   0 0.000   0 0.000  0 0 
    103 "Adler       " 138.00     124 "Avery       " 230.00  "1 "  1 "                                " :  1  0.002000  0.084000  0.000000  400.0    0.0    0.0    0.0 0.000    1.0 /
  12   16  0.000000  0.000000  1.000000   400101   391231   0 1  0    0.0    0.0    0.0    0.0   1 1.000   0 0.000   0 0.000   0 0.000   0 0.000   0 0.000   0 0.000   0 0.000   0 0.000   0 0.000   0 0.000   0 0.000  0 0 
    104 "Agricola    " 138.00     109 "Ali         " 138.00  "1 "  1 "                                " :  1  0.027000  0.104000  0.028000  175.0    0.0    0.0    0.0 0.000    1.0 /
  11   13  0.000000  0.000000  1.000000   400101   391231   0 1  0    0.0    0.0    0.0    0.0   1 1.000   0 0.000   0 0.000   0 0.000   0 0.000   0 0.000   0 0.000   0 0.000   0 0.000   0 0.000   0 0.000   0 0.000  0 0 
    105 "Alken       " 138.00     110 "Allen       " 138.00  "1 "  1 "                                " :  1  0.023000  0.088000  0.024000  175.0    0.0    0.0    0.0 0.000    1.0 /
  11   13  0.000000  0.000000  1.000000   400101   391231   0 1  0    0.0    0.0    0.0    0.0   1 1.000   0 0.000   0 0.000   0 0.000   0 0.000   0 0.000   0 0.000   0 0.000   0 0.000   0 0.000   0 0.000   0 0.000  0 0 
    106 "Alber       " 138.00     110 "Allen       " 138.00  "1 "  1 "                                " :  1  0.014000  0.061000  2.459000  175.0    0.0    0.0    0.0 0.000    1.0 /
  11   13  0.000000  0.000000  1.000000   400101   391231   0 1  0    0.0    0.0    0.0    0.0   1 1.000   0 0.000   0 0.000   0 0.000   0 0.000   0 0.000   0 0.000   0 0.000   0 0.000   0 0.000   0 0.000   0 0.000  0 0 
    107 "Alder       " 138.00     108 "Alger       " 138.00  "1 "  1 "                                " :  1  0.016000  0.061000  0.017000 1500.0    0.0    0.0    0.0 0.000    1.0 /
  11   12  0.000000  0.000000  1.000000   400101   391231   0 1  0    0.0    0.0    0.0    0.0   1 1.000   0 0.000   0 0.000   0 0.000   0 0.000   0 0.000   0 0.000   0 0.000   0 0.000   0 0.000   0 0.000   0 0.000  0 0 
    107 "Alder       " 138.00     203 "Baffin      " 138.00  "1 "  1 "                                " :  1  0.042000  0.161000  0.044000  500.0    0.0    0.0    0.0 0.000    1.0 /
  21   21  0.000000  0.000000  1.000000   400101   391231   0 1  0    0.0    0.0    0.0    0.0   1 1.000   0 0.000   0 0.000   0 0.000   0 0.000   0 0.000   0 0.000   0 0.000   0 0.000   0 0.000   0 0.000   0 0.000  0 0 
    108 "Alger       " 138.00     109 "Ali         " 138.00  "1 "  1 "                                " :  1  0.043000  0.165000  0.045000  500.0    0.0    0.0    0.0 0.000    1.0 /
  11   13  0.000000  0.000000  1.000000   400101   391231   0 1  0    0.0    0.0    0.0    0.0   1 1.000   0 0.000   0 0.000   0 0.000   0 0.000   0 0.000   0 0.000   0 0.000   0 0.000   0 0.000   0 0.000   0 0.000  0 0 
    108 "Alger       " 138.00     110 "Allen       " 138.00  "1 "  1 "                                " :  1  0.043000  0.165000  0.045000  500.0    0.0    0.0    0.0 0.000    1.0 /
  11   13  0.000000  0.000000  1.000000   400101   391231   0 1  0    0.0    0.0    0.0    0.0   1 1.000   0 0.000   0 0.000   0 0.000   0 0.000   0 0.000   0 0.000   0 0.000   0 0.000   0 0.000   0 0.000   0 0.000  0 0 
    109 "Ali         " 138.00     111 "Anna        " 230.00  "1 "  1 "                                " :  1  0.002000  0.084000  0.000000  400.0    0.0    0.0    0.0 0.000    1.0 /
  11   13  0.000000  0.000000  1.000000   400101   391231   0 1  0    0.0    0.0    0.0    0.0   1 1.000   0 0.000   0 0.000   0 0.000   0 0.000   0 0.000   0 0.000   0 0.000   0 0.000   0 0.000   0 0.000   0 0.000  0 0 
    109 "Ali         " 138.00     112 "Archer      " 230.00  "1 "  1 "                                " :  1  0.002000  0.084000  0.000000  400.0    0.0    0.0    0.0 0.000    1.0 /
  11   13  0.000000  0.000000  1.000000   400101   391231   0 1  0    0.0    0.0    0.0    0.0   1 1.000   0 0.000   0 0.000   0 0.000   0 0.000   0 0.000   0 0.000   0 0.000   0 0.000   0 0.000   0 0.000   0 0.000  0 0 
    110 "Allen       " 138.00     111 "Anna        " 230.00  "1 "  1 "                                " :  1  0.002000  0.084000  0.000000  400.0    0.0    0.0    0.0 0.000    1.0 /
  11   13  0.000000  0.000000  1.000000   400101   391231   0 1  0    0.0    0.0    0.0    0.0   1 1.000   0 0.000   0 0.000   0 0.000   0 0.000   0 0.000   0 0.000   0 0.000   0 0.000   0 0.000   0 0.000   0 0.000  0 0 
    110 "Allen       " 138.00     112 "Archer      " 230.00  "1 "  1 "                                " :  1  0.002000  0.084000  0.000000  400.0    0.0    0.0    0.0 0.000    1.0 /
  11   13  0.000000  0.000000  1.000000   400101   391231   0 1  0    0.0    0.0    0.0    0.0   1 1.000   0 0.000   0 0.000   0 0.000   0 0.000   0 0.000   0 0.000   0 0.000   0 0.000   0 0.000   0 0.000   0 0.000  0 0 
    111 "Anna        " 230.00     113 "Arne        " 230.00  "1 "  1 "                                " :  1  0.006000  0.048000  0.100000 2000.0    0.0    0.0    0.0 0.000    1.0 /
  12   14  0.000000  0.000000  1.000000   400101   391231   0 1  0    0.0    0.0    0.0    0.0   1 1.000   0 0.000   0 0.000   0 0.000   0 0.000   0 0.000   0 0.000   0 0.000   0 0.000   0 0.000   0 0.000   0 0.000  0 0 
    111 "Anna        " 230.00     114 "Arnold      " 230.00  "1 "  1 "                                " :  1  0.005000  0.042000  0.088000 2000.0    0.0    0.0    0.0 0.000    1.0 /
  12   16  0.000000  0.000000  1.000000   400101   391231   0 1  0    0.0    0.0    0.0    0.0   1 1.000   0 0.000   0 0.000   0 0.000   0 0.000   0 0.000   0 0.000   0 0.000   0 0.000   0 0.000   0 0.000   0 0.000  0 0 
    112 "Archer      " 230.00     113 "Arne        " 230.00  "1 "  1 "                                " :  1  0.006000  0.048000  0.100000 2000.0    0.0    0.0    0.0 0.000    1.0 /
  12   14  0.000000  0.000000  1.000000   400101   391231   0 1  0    0.0    0.0    0.0    0.0   1 1.000   0 0.000   0 0.000   0 0.000   0 0.000   0 0.000   0 0.000   0 0.000   0 0.000   0 0.000   0 0.000   0 0.000  0 0 
    112 "Archer      " 230.00     123 "Austen      " 230.00  "1 "  1 "                                " :  1  0.012000  0.097000  0.203000  750.0    0.0    0.0    0.0 0.000    1.0 /
  12   15  0.000000  0.000000  1.000000   400101   391231   0 1  0    0.0    0.0    0.0    0.0   1 1.000   0 0.000   0 0.000   0 0.000   0 0.000   0 0.000   0 0.000   0 0.000   0 0.000   0 0.000   0 0.000   0 0.000  0 0 
    113 "Arne        " 230.00     123 "Austen      " 230.00  "1 "  1 "                                " :  1  0.011000  0.087000  0.182000 2000.0    0.0    0.0    0.0 0.000    1.0 /
  12   15  0.000000  0.000000  1.000000   400101   391231   0 1  0    0.0    0.0    0.0    0.0   1 1.000   0 0.000   0 0.000   0 0.000   0 0.000   0 0.000   0 0.000   0 0.000   0 0.000   0 0.000   0 0.000   0 0.000  0 0 
    113 "Arne        " 230.00     215 "Barton      " 230.00  "1 "  1 "                                " :  1  0.010000  0.075000  0.158000 2000.0    0.0    0.0    0.0 0.000    1.0 /
  22   26  0.000000  0.000000  1.000000   400101   391231   0 1  0    0.0    0.0    0.0    0.0   1 1.000   0 0.000   0 0.000   0 0.000   0 0.000   0 0.000   0 0.000   0 0.000   0 0.000   0 0.000   0 0.000   0 0.000  0 0 
    114 "Arnold      " 230.00     116 "Asser       " 230.00  "1 "  1 "                                " :  1  0.005000  0.059000  0.082000  750.0    0.0    0.0    0.0 0.000    1.0 /
  12   16  0.000000  0.000000  1.000000   400101   391231   0 1  0    0.0    0.0    0.0    0.0   1 1.000   0 0.000   0 0.000   0 0.000   0 0.000   0 0.000   0 0.000   0 0.000   0 0.000   0 0.000   0 0.000   0 0.000  0 0 
    115 "Arthur      " 230.00     116 "Asser       " 230.00  "1 "  1 "                                " :  1  0.002000  0.017000  0.036000  500.0    0.0    0.0    0.0 0.000    1.0 /
  12   16  0.000000  0.000000  1.000000   400101   391231   0 1  0    0.0    0.0    0.0    0.0   1 1.000   0 0.000   0 0.000   0 0.000   0 0.000   0 0.000   0 0.000   0 0.000   0 0.000   0 0.000   0 0.000   0 0.000  0 0 
    115 "Arthur      " 230.00     121 "Attlee      " 230.00  "1 "  1 "                                " :  1  0.006000  0.049000  0.103000  500.0    0.0    0.0    0.0 0.000    1.0 /
  12   17  0.000000  0.000000  1.000000   400101   391231   0 1  0    0.0    0.0    0.0    0.0   1 1.000   0 0.000   0 0.000   0 0.000   0 0.000   0 0.000   0 0.000   0 0.000   0 0.000   0 0.000   0 0.000   0 0.000  0 0 
    115 "Arthur      " 230.00     124 "Avery       " 230.00  "1 "  1 "                                " :  1  0.007000  0.052000  0.109000  500.0    0.0    0.0    0.0 0.000    1.0 /
  12   16  0.000000  0.000000  1.000000   400101   391231   0 1  0    0.0    0.0    0.0    0.0   1 1.000   0 0.000   0 0.000   0 0.000   0 0.000   0 0.000   0 0.000   0 0.000   0 0.000   0 0.000   0 0.000   0 0.000  0 0 
    116 "Asser       " 230.00     117 "Aston       " 230.00  "1 "  1 "                                " :  1  0.003000  0.026000  0.055000  750.0    0.0    0.0    0.0 0.000    1.0 /
  12   17  0.000000  0.000000  1.000000   400101   391231   0 1  0    0.0    0.0    0.0    0.0   1 1.000   0 0.000   0 0.000   0 0.000   0 0.000   0 0.000   0 0.000   0 0.000   0 0.000   0 0.000   0 0.000   0 0.000  0 0 
    116 "Asser       " 230.00     119 "Attar       " 230.00  "1 "  1 "                                " :  1  0.003000  0.023000  0.049000  500.0    0.0    0.0    0.0 0.000    1.0 /
  12   15  0.000000  0.000000  1.000000   400101   391231   0 1  0    0.0    0.0    0.0    0.0   1 1.000   0 0.000   0 0.000   0 0.000   0 0.000   0 0.000   0 0.000   0 0.000   0 0.000   0 0.000   0 0.000   0 0.000  0 0 
    117 "Aston       " 230.00     118 "Astor       " 230.00  "1 "  1 "                                " :  1  0.002000  0.014000  0.030000  750.0    0.0    0.0    0.0 0.000    1.0 /
  12   17  0.000000  0.000000  1.000000   400101   391231   0 1  0    0.0    0.0    0.0    0.0   1 1.000   0 0.000   0 0.000   0 0.000   0 0.000   0 0.000   0 0.000   0 0.000   0 0.000   0 0.000   0 0.000   0 0.000  0 0 
    117 "Aston       " 230.00     122 "Aubrey      " 230.00  "1 "  1 "                                " :  1  0.014000  0.105000  0.221000  500.0    0.0    0.0    0.0 0.000    1.0 /
  12   17  0.000000  0.000000  1.000000   400101   391231   0 1  0    0.0    0.0    0.0    0.0   1 1.000   0 0.000   0 0.000   0 0.000   0 0.000   0 0.000   0 0.000   0 0.000   0 0.000   0 0.000   0 0.000   0 0.000  0 0 
    118 "Astor       " 230.00     121 "Attlee      " 230.00  "1 "  1 "                                " :  1  0.003000  0.026000  0.055000  500.0    0.0    0.0    0.0 0.000    1.0 /
  12   17  0.000000  0.000000  1.000000   400101   391231   0 1  0    0.0    0.0    0.0    0.0   1 1.000   0 0.000   0 0.000   0 0.000   0 0.000   0 0.000   0 0.000   0 0.000   0 0.000   0 0.000   0 0.000   0 0.000  0 0 
    118 "Astor       " 230.00     121 "Attlee      " 230.00  "2 "  1 "                                " :  1  0.003000  0.026000  0.055000  500.0    0.0    0.0    0.0 0.000    1.0 /
  12   17  0.000000  0.000000  1.000000   400101   391231   0 1  0    0.0    0.0    0.0    0.0   1 1.000   0 0.000   0 0.000   0 0.000   0 0.000   0 0.000   0 0.000   0 0.000   0 0.000   0 0.000   0 0.000   0 0.000  0 0 
    119 "Attar       " 230.00     120 "Attila      " 230.00  "1 "  1 "                                " :  1  0.005000  0.040000  0.083000  500.0    0.0    0.0    0.0 0.000    1.0 /
  12   15  0.000000  0.000000  1.000000   400101   391231   0 1  0    0.0    0.0    0.0    0.0   1 1.000   0 0.000   0 0.000   0 0.000   0 0.000   0 0.000   0 0.000   0 0.000   0 0.000   0 0.000   0 0.000   0 0.000  0 0 
    119 "Attar       " 230.00     120 "Attila      " 230.00  "2 "  1 "                                " :  1  0.005000  0.040000  0.083000  500.0    0.0    0.0    0.0 0.000    1.0 /
  12   15  0.000000  0.000000  1.000000   400101   391231   0 1  0    0.0    0.0    0.0    0.0   1 1.000   0 0.000   0 0.000   0 0.000   0 0.000   0 0.000   0 0.000   0 0.000   0 0.000   0 0.000   0 0.000   0 0.000  0 0 
    120 "Attila      " 230.00     123 "Austen      " 230.00  "1 "  1 "                                " :  1  0.003000  0.022000  0.046000  750.0    0.0    0.0    0.0 0.000    1.0 /
  12   15  0.000000  0.000000  1.000000   400101   391231   0 1  0    0.0    0.0    0.0    0.0   1 1.000   0 0.000   0 0.000   0 0.000   0 0.000   0 0.000   0 0.000   0 0.000   0 0.000   0 0.000   0 0.000   0 0.000  0 0 
    121 "Attlee      " 230.00     122 "Aubrey      " 230.00  "1 "  1 "                                " :  1  0.009000  0.068000  0.142000  500.0    0.0    0.0    0.0 0.000    1.0 /
  12   17  0.000000  0.000000  1.000000   400101   391231   0 1  0    0.0    0.0    0.0    0.0   1 1.000   0 0.000   0 0.000   0 0.000   0 0.000   0 0.000   0 0.000   0 0.000   0 0.000   0 0.000   0 0.000   0 0.000  0 0 
    123 "Austen      " 230.00     217 "Bates       " 230.00  "1 "  1 "                                " :  1  0.010000  0.074000  0.155000  750.0    0.0    0.0    0.0 0.000    1.0 /
  22   27  0.000000  0.000000  1.000000   400101   391231   0 1  0    0.0    0.0    0.0    0.0   1 1.000   0 0.000   0 0.000   0 0.000   0 0.000   0 0.000   0 0.000   0 0.000   0 0.000   0 0.000   0 0.000   0 0.000  0 0 
    201 "Bach        " 138.00     202 "Bacon       " 138.00  "1 "  1 "                                " :  1  0.003000  0.014000  0.461000  175.0    0.0    0.0    0.0 0.000    1.0 /
  21   22  0.000000  0.000000  1.000000   400101   391231   0 1  0    0.0    0.0    0.0    0.0   1 1.000   0 0.000   0 0.000   0 0.000   0 0.000   0 0.000   0 0.000   0 0.000   0 0.000   0 0.000   0 0.000   0 0.000  0 0 
    201 "Bach        " 138.00     203 "Baffin      " 138.00  "1 "  1 "                                " :  1  0.055000  0.211000  0.057000  175.0    0.0    0.0    0.0 0.000    1.0 /
  21   21  0.000000  0.000000  1.000000   400101   391231   0 1  0    0.0    0.0    0.0    0.0   1 1.000   0 0.000   0 0.000   0 0.000   0 0.000   0 0.000   0 0.000   0 0.000   0 0.000   0 0.000   0 0.000   0 0.000  0 0 
    201 "Bach        " 138.00     205 "Baln        " 138.00  "1 "  1 "                                " :  1  0.022000  0.085000  0.023000  175.0    0.0    0.0    0.0 0.000    1.0 /
  21   21  0.000000  0.000000  1.000000   400101   391231   0 1  0    0.0    0.0    0.0    0.0   1 1.000   0 0.000   0 0.000   0 0.000   0 0.000   0 0.000   0 0.000   0 0.000   0 0.000   0 0.000   0 0.000   0 0.000  0 0 
    202 "Bacon       " 138.00     204 "Bailey      " 138.00  "1 "  1 "                                " :  1  0.033000  0.127000  0.034000  175.0    0.0    0.0    0.0 0.000    1.0 /
  21   21  0.000000  0.000000  1.000000   400101   391231   0 1  0    0.0    0.0    0.0    0.0   1 1.000   0 0.000   0 0.000   0 0.000   0 0.000   0 0.000   0 0.000   0 0.000   0 0.000   0 0.000   0 0.000   0 0.000  0 0 
    202 "Bacon       " 138.00     206 "Bajer       " 138.00  "1 "  1 "                                " :  1  0.050000  0.192000  0.052000  175.0    0.0    0.0    0.0 0.000    1.0 /
  21   22  0.000000  0.000000  1.000000   400101   391231   0 1  0    0.0    0.0    0.0    0.0   1 1.000   0 0.000   0 0.000   0 0.000   0 0.000   0 0.000   0 0.000   0 0.000   0 0.000   0 0.000   0 0.000   0 0.000  0 0 
    203 "Baffin      " 138.00     209 "Balzac      " 138.00  "1 "  1 "                                " :  1  0.031000  0.119000  0.032000  500.0    0.0    0.0    0.0 0.000    1.0 /
  21   23  0.000000  0.000000  1.000000   400101   391231   0 1  0    0.0    0.0    0.0    0.0   1 1.000   0 0.000   0 0.000   0 0.000   0 0.000   0 0.000   0 0.000   0 0.000   0 0.000   0 0.000   0 0.000   0 0.000  0 0 
    203 "Baffin      " 138.00     224 "Bordet      " 230.00  "1 "  1 "                                " :  1  0.002000  0.084000  0.000000  400.0    0.0    0.0    0.0 0.000    1.0 /
  22   26  0.000000  0.000000  1.000000   400101   391231   0 1  0    0.0    0.0    0.0    0.0   1 1.000   0 0.000   0 0.000   0 0.000   0 0.000   0 0.000   0 0.000   0 0.000   0 0.000   0 0.000   0 0.000   0 0.000  0 0 
    204 "Bailey      " 138.00     209 "Balzac      " 138.00  "1 "  1 "                                " :  1  0.027000  0.104000  0.028000  175.0    0.0    0.0    0.0 0.000    1.0 /
  21   23  0.000000  0.000000  1.000000   400101   391231   0 1  0    0.0    0.0    0.0    0.0   1 1.000   0 0.000   0 0.000   0 0.000   0 0.000   0 0.000   0 0.000   0 0.000   0 0.000   0 0.000   0 0.000   0 0.000  0 0 
    205 "Baln        " 138.00     210 "Banks       " 138.00  "1 "  1 "                                " :  1  0.023000  0.088000  0.024000  175.0    0.0    0.0    0.0 0.000    1.0 /
  21   23  0.000000  0.000000  1.000000   400101   391231   0 1  0    0.0    0.0    0.0    0.0   1 1.000   0 0.000   0 0.000   0 0.000   0 0.000   0 0.000   0 0.000   0 0.000   0 0.000   0 0.000   0 0.000   0 0.000  0 0 
    206 "Bajer       " 138.00     210 "Banks       " 138.00  "1 "  1 "                                " :  1  0.014000  0.061000  2.459000  175.0    0.0    0.0    0.0 0.000    1.0 /
  21   23  0.000000  0.000000  1.000000   400101   391231   0 1  0    0.0    0.0    0.0    0.0   1 1.000   0 0.000   0 0.000   0 0.000   0 0.000   0 0.000   0 0.000   0 0.000   0 0.000   0 0.000   0 0.000   0 0.000  0 0 
    207 "Baker       " 138.00     208 "Balch       " 138.00  "1 "  1 "                                " :  1  0.016000  0.061000  0.017000  175.0    0.0    0.0    0.0 0.000    1.0 /
  21   22  0.000000  0.000000  1.000000   400101   391231   0 1  0    0.0    0.0    0.0    0.0   1 1.000   0 0.000   0 0.000   0 0.000   0 0.000   0 0.000   0 0.000   0 0.000   0 0.000   0 0.000   0 0.000   0 0.000  0 0 
    208 "Balch       " 138.00     209 "Balzac      " 138.00  "1 "  1 "                                " :  1  0.043000  0.165000  0.045000  175.0    0.0    0.0    0.0 0.000    1.0 /
  21   23  0.000000  0.000000  1.000000   400101   391231   0 1  0    0.0    0.0    0.0    0.0   1 1.000   0 0.000   0 0.000   0 0.000   0 0.000   0 0.000   0 0.000   0 0.000   0 0.000   0 0.000   0 0.000   0 0.000  0 0 
    208 "Balch       " 138.00     210 "Banks       " 138.00  "1 "  1 "                                " :  1  0.043000  0.165000  0.045000  175.0    0.0    0.0    0.0 0.000    1.0 /
  21   23  0.000000  0.000000  1.000000   400101   391231   0 1  0    0.0    0.0    0.0    0.0   1 1.000   0 0.000   0 0.000   0 0.000   0 0.000   0 0.000   0 0.000   0 0.000   0 0.000   0 0.000   0 0.000   0 0.000  0 0 
    209 "Balzac      " 138.00     211 "Bardeen     " 230.00  "1 "  1 "                                " :  1  0.002000  0.084000  0.000000  400.0    0.0    0.0    0.0 0.000    1.0 /
  21   23  0.000000  0.000000  1.000000   400101   391231   0 1  0    0.0    0.0    0.0    0.0   1 1.000   0 0.000   0 0.000   0 0.000   0 0.000   0 0.000   0 0.000   0 0.000   0 0.000   0 0.000   0 0.000   0 0.000  0 0 
    209 "Balzac      " 138.00     212 "Barkla      " 230.00  "1 "  1 "                                " :  1  0.002000  0.084000  0.000000  400.0    0.0    0.0    0.0 0.000    1.0 /
  21   23  0.000000  0.000000  1.000000   400101   391231   0 1  0    0.0    0.0    0.0    0.0   1 1.000   0 0.000   0 0.000   0 0.000   0 0.000   0 0.000   0 0.000   0 0.000   0 0.000   0 0.000   0 0.000   0 0.000  0 0 
    210 "Banks       " 138.00     211 "Bardeen     " 230.00  "1 "  1 "                                " :  1  0.002000  0.084000  0.000000  400.0    0.0    0.0    0.0 0.000    1.0 /
  21   23  0.000000  0.000000  1.000000   400101   391231   0 1  0    0.0    0.0    0.0    0.0   1 1.000   0 0.000   0 0.000   0 0.000   0 0.000   0 0.000   0 0.000   0 0.000   0 0.000   0 0.000   0 0.000   0 0.000  0 0 
    210 "Banks       " 138.00     212 "Barkla      " 230.00  "1 "  1 "                                " :  1  0.002000  0.084000  0.000000  400.0    0.0    0.0    0.0 0.000    1.0 /
  21   23  0.000000  0.000000  1.000000   400101   391231   0 1  0    0.0    0.0    0.0    0.0   1 1.000   0 0.000   0 0.000   0 0.000   0 0.000   0 0.000   0 0.000   0 0.000   0 0.000   0 0.000   0 0.000   0 0.000  0 0 
    211 "Bardeen     " 230.00     213 "Barlow      " 230.00  "1 "  1 "                                " :  1  0.006000  0.048000  0.100000  500.0    0.0    0.0    0.0 0.000    1.0 /
  22   24  0.000000  0.000000  1.000000   400101   391231   0 1  0    0.0    0.0    0.0    0.0   1 1.000   0 0.000   0 0.000   0 0.000   0 0.000   0 0.000   0 0.000   0 0.000   0 0.000   0 0.000   0 0.000   0 0.000  0 0 
    211 "Bardeen     " 230.00     214 "Barry       " 230.00  "1 "  1 "                                " :  1  0.005000  0.042000  0.088000  500.0    0.0    0.0    0.0 0.000    1.0 /
  22   26  0.000000  0.000000  1.000000   400101   391231   0 1  0    0.0    0.0    0.0    0.0   1 1.000   0 0.000   0 0.000   0 0.000   0 0.000   0 0.000   0 0.000   0 0.000   0 0.000   0 0.000   0 0.000   0 0.000  0 0 
    212 "Barkla      " 230.00     213 "Barlow      " 230.00  "1 "  1 "                                " :  1  0.006000  0.048000  0.100000  500.0    0.0    0.0    0.0 0.000    1.0 /
  22   24  0.000000  0.000000  1.000000   400101   391231   0 1  0    0.0    0.0    0.0    0.0   1 1.000   0 0.000   0 0.000   0 0.000   0 0.000   0 0.000   0 0.000   0 0.000   0 0.000   0 0.000   0 0.000   0 0.000  0 0 
    212 "Barkla      " 230.00     223 "Bloch       " 230.00  "1 "  1 "                                " :  1  0.012000  0.097000  0.203000  500.0    0.0    0.0    0.0 0.000    1.0 /
  22   25  0.000000  0.000000  1.000000   400101   391231   0 1  0    0.0    0.0    0.0    0.0   1 1.000   0 0.000   0 0.000   0 0.000   0 0.000   0 0.000   0 0.000   0 0.000   0 0.000   0 0.000   0 0.000   0 0.000  0 0 
    213 "Barlow      " 230.00     223 "Bloch       " 230.00  "1 "  1 "                                " :  1  0.011000  0.087000  0.182000  500.0    0.0    0.0    0.0 0.000    1.0 /
  22   25  0.000000  0.000000  1.000000   400101   391231   0 1  0    0.0    0.0    0.0    0.0   1 1.000   0 0.000   0 0.000   0 0.000   0 0.000   0 0.000   0 0.000   0 0.000   0 0.000   0 0.000   0 0.000   0 0.000  0 0 
    214 "Barry       " 230.00     216 "Basov       " 230.00  "1 "  1 "                                " :  1  0.005000  0.059000  0.082000  500.0    0.0    0.0    0.0 0.000    1.0 /
  22   26  0.000000  0.000000  1.000000   400101   391231   0 1  0    0.0    0.0    0.0    0.0   1 1.000   0 0.000   0 0.000   0 0.000   0 0.000   0 0.000   0 0.000   0 0.000   0 0.000   0 0.000   0 0.000   0 0.000  0 0 
    215 "Barton      " 230.00     216 "Basov       " 230.00  "1 "  1 "                                " :  1  0.002000  0.017000  0.036000  750.0    0.0    0.0    0.0 0.000    1.0 /
  22   26  0.000000  0.000000  1.000000   400101   391231   0 1  0    0.0    0.0    0.0    0.0   1 1.000   0 0.000   0 0.000   0 0.000   0 0.000   0 0.000   0 0.000   0 0.000   0 0.000   0 0.000   0 0.000   0 0.000  0 0 
    215 "Barton      " 230.00     221 "Behring     " 230.00  "1 "  1 "                                " :  1  0.006000  0.049000  0.103000  500.0    0.0    0.0    0.0 0.000    1.0 /
  22   27  0.000000  0.000000  1.000000   400101   391231   0 1  0    0.0    0.0    0.0    0.0   1 1.000   0 0.000   0 0.000   0 0.000   0 0.000   0 0.000   0 0.000   0 0.000   0 0.000   0 0.000   0 0.000   0 0.000  0 0 
    215 "Barton      " 230.00     224 "Bordet      " 230.00  "1 "  1 "                                " :  1  0.007000  0.052000  0.109000  500.0    0.0    0.0    0.0 0.000    1.0 /
  22   26  0.000000  0.000000  1.000000   400101   391231   0 1  0    0.0    0.0    0.0    0.0   1 1.000   0 0.000   0 0.000   0 0.000   0 0.000   0 0.000   0 0.000   0 0.000   0 0.000   0 0.000   0 0.000   0 0.000  0 0 
    216 "Basov       " 230.00     217 "Bates       " 230.00  "1 "  1 "                                " :  1  0.003000  0.026000  0.055000  750.0    0.0    0.0    0.0 0.000    1.0 /
  22   27  0.000000  0.000000  1.000000   400101   391231   0 1  0    0.0    0.0    0.0    0.0   1 1.000   0 0.000   0 0.000   0 0.000   0 0.000   0 0.000   0 0.000   0 0.000   0 0.000   0 0.000   0 0.000   0 0.000  0 0 
    216 "Basov       " 230.00     219 "Bede        " 230.00  "1 "  1 "                                " :  1  0.003000  0.023000  0.049000  750.0    0.0    0.0    0.0 0.000    1.0 /
  22   25  0.000000  0.000000  1.000000   400101   391231   0 1  0    0.0    0.0    0.0    0.0   1 1.000   0 0.000   0 0.000   0 0.000   0 0.000   0 0.000   0 0.000   0 0.000   0 0.000   0 0.000   0 0.000   0 0.000  0 0 
    217 "Bates       " 230.00     218 "Bayle       " 230.00  "1 "  1 "                                " :  1  0.002000  0.014000  0.030000  500.0    0.0    0.0    0.0 0.000    1.0 /
  22   27  0.000000  0.000000  1.000000   400101   391231   0 1  0    0.0    0.0    0.0    0.0   1 1.000   0 0.000   0 0.000   0 0.000   0 0.000   0 0.000   0 0.000   0 0.000   0 0.000   0 0.000   0 0.000   0 0.000  0 0 
    217 "Bates       " 230.00     222 "Bell        " 230.00  "1 "  1 "                                " :  1  0.014000  0.105000  0.221000  500.0    0.0    0.0    0.0 0.000    1.0 /
  22   27  0.000000  0.000000  1.000000   400101   391231   0 1  0    0.0    0.0    0.0    0.0   1 1.000   0 0.000   0 0.000   0 0.000   0 0.000   0 0.000   0 0.000   0 0.000   0 0.000   0 0.000   0 0.000   0 0.000  0 0 
    218 "Bayle       " 230.00     221 "Behring     " 230.00  "1 "  1 "                                " :  1  0.003000  0.026000  0.055000  500.0    0.0    0.0    0.0 0.000    1.0 /
  22   27  0.000000  0.000000  1.000000   400101   391231   0 1  0    0.0    0.0    0.0    0.0   1 1.000   0 0.000   0 0.000   0 0.000   0 0.000   0 0.000   0 0.000   0 0.000   0 0.000   0 0.000   0 0.000   0 0.000  0 0 
    219 "Bede        " 230.00     220 "Beethoven   " 230.00  "1 "  1 "                                " :  1  0.005000  0.040000  0.083000  750.0    0.0    0.0    0.0 0.000    1.0 /
  22   25  0.000000  0.000000  1.000000   400101   391231   0 1  0    0.0    0.0    0.0    0.0   1 1.000   0 0.000   0 0.000   0 0.000   0 0.000   0 0.000   0 0.000   0 0.000   0 0.000   0 0.000   0 0.000   0 0.000  0 0 
    220 "Beethoven   " 230.00     223 "Bloch       " 230.00  "1 "  1 "                                " :  1  0.003000  0.022000  0.046000  750.0    0.0    0.0    0.0 0.000    1.0 /
  22   25  0.000000  0.000000  1.000000   400101   391231   0 1  0    0.0    0.0    0.0    0.0   1 1.000   0 0.000   0 0.000   0 0.000   0 0.000   0 0.000   0 0.000   0 0.000   0 0.000   0 0.000   0 0.000   0 0.000  0 0 
    221 "Behring     " 230.00     222 "Bell        " 230.00  "1 "  1 "                                " :  1  0.009000  0.068000  0.142000  500.0    0.0    0.0    0.0 0.000    1.0 /
  22   27  0.000000  0.000000  1.000000   400101   391231   0 1  0    0.0    0.0    0.0    0.0   1 1.000   0 0.000   0 0.000   0 0.000   0 0.000   0 0.000   0 0.000   0 0.000   0 0.000   0 0.000   0 0.000   0 0.000  0 0 
    301 "Cabell      " 138.00     302 "Cabot       " 138.00  "1 "  1 "                                " :  1  0.003000  0.014000  0.461000  175.0    0.0    0.0    0.0 0.000    1.0 /
  31   32  0.000000  0.000000  1.000000   400101   391231   0 1  0    0.0    0.0    0.0    0.0   1 1.000   0 0.000   0 0.000   0 0.000   0 0.000   0 0.000   0 0.000   0 0.000   0 0.000   0 0.000   0 0.000   0 0.000  0 0 
    301 "Cabell      " 138.00     303 "Caesar      " 138.00  "1 "  1 "                                " :  1  0.055000  0.211000  0.057000  175.0    0.0    0.0    0.0 0.000    1.0 /
  31   31  0.000000  0.000000  1.000000   400101   391231   0 1  0    0.0    0.0    0.0    0.0   1 1.000   0 0.000   0 0.000   0 0.000   0 0.000   0 0.000   0 0.000   0 0.000   0 0.000   0 0.000   0 0.000   0 0.000  0 0 
    301 "Cabell      " 138.00     305 "Calvin      " 138.00  "1 "  1 "                                " :  1  0.022000  0.085000  0.023000  175.0    0.0    0.0    0.0 0.000    1.0 /
  31   31  0.000000  0.000000  1.000000   400101   391231   0 1  0    0.0    0.0    0.0    0.0   1 1.000   0 0.000   0 0.000   0 0.000   0 0.000   0 0.000   0 0.000   0 0.000   0 0.000   0 0.000   0 0.000   0 0.000  0 0 
    302 "Cabot       " 138.00     304 "Caine       " 138.00  "1 "  1 "                                " :  1  0.033000  0.127000  0.034000  175.0    0.0    0.0    0.0 0.000    1.0 /
  31   31  0.000000  0.000000  1.000000   400101   391231   0 1  0    0.0    0.0    0.0    0.0   1 1.000   0 0.000   0 0.000   0 0.000   0 0.000   0 0.000   0 0.000   0 0.000   0 0.000   0 0.000   0 0.000   0 0.000  0 0 
    302 "Cabot       " 138.00     306 "Camus       " 138.00  "1 "  1 "                                " :  1  0.050000  0.192000  0.052000  175.0    0.0    0.0    0.0 0.000    1.0 /
  31   32  0.000000  0.000000  1.000000   400101   391231   0 1  0    0.0    0.0    0.0    0.0   1 1.000   0 0.000   0 0.000   0 0.000   0 0.000   0 0.000   0 0.000   0 0.000   0 0.000   0 0.000   0 0.000   0 0.000  0 0 
    303 "Caesar      " 138.00     309 "Carter      " 138.00  "1 "  1 "                                " :  1  0.031000  0.119000  0.032000  175.0    0.0    0.0    0.0 0.000    1.0 /
  31   33  0.000000  0.000000  1.000000   400101   391231   0 1  0    0.0    0.0    0.0    0.0   1 1.000   0 0.000   0 0.000   0 0.000   0 0.000   0 0.000   0 0.000   0 0.000   0 0.000   0 0.000   0 0.000   0 0.000  0 0 
    303 "Caesar      " 138.00     324 "Curie       " 230.00  "1 "  1 "                                " :  1  0.002000  0.084000  0.000000  400.0    0.0    0.0    0.0 0.000    1.0 /
  32   36  0.000000  0.000000  1.000000   400101   391231   0 1  0    0.0    0.0    0.0    0.0   1 1.000   0 0.000   0 0.000   0 0.000   0 0.000   0 0.000   0 0.000   0 0.000   0 0.000   0 0.000   0 0.000   0 0.000  0 0 
    304 "Caine       " 138.00     309 "Carter      " 138.00  "1 "  1 "                                " :  1  0.027000  0.104000  0.028000  175.0    0.0    0.0    0.0 0.000    1.0 /
  31   33  0.000000  0.000000  1.000000   400101   391231   0 1  0    0.0    0.0    0.0    0.0   1 1.000   0 0.000   0 0.000   0 0.000   0 0.000   0 0.000   0 0.000   0 0.000   0 0.000   0 0.000   0 0.000   0 0.000  0 0 
    305 "Calvin      " 138.00     310 "Caruso      " 138.00  "1 "  1 "                                " :  1  0.023000  0.088000  0.024000  175.0    0.0    0.0    0.0 0.000    1.0 /
  31   33  0.000000  0.000000  1.000000   400101   391231   0 1  0    0.0    0.0    0.0    0.0   1 1.000   0 0.000   0 0.000   0 0.000   0 0.000   0 0.000   0 0.000   0 0.000   0 0.000   0 0.000   0 0.000   0 0.000  0 0 
    306 "Camus       " 138.00     310 "Caruso      " 138.00  "1 "  1 "                                " :  1  0.014000  0.061000  2.459000  175.0    0.0    0.0    0.0 0.000    1.0 /
  31   33  0.000000  0.000000  1.000000   400101   391231   0 1  0    0.0    0.0    0.0    0.0   1 1.000   0 0.000   0 0.000   0 0.000   0 0.000   0 0.000   0 0.000   0 0.000   0 0.000   0 0.000   0 0.000   0 0.000  0 0 
    307 "Carew       " 138.00     308 "Carrel      " 138.00  "1 "  1 "                                " :  1  0.016000  0.061000  0.017000  175.0    0.0    0.0    0.0 0.000    1.0 /
  31   32  0.000000  0.000000  1.000000   400101   391231   0 1  0    0.0    0.0    0.0    0.0   1 1.000   0 0.000   0 0.000   0 0.000   0 0.000   0 0.000   0 0.000   0 0.000   0 0.000   0 0.000   0 0.000   0 0.000  0 0 
    308 "Carrel      " 138.00     309 "Carter      " 138.00  "1 "  1 "                                " :  1  0.043000  0.165000  0.045000  175.0    0.0    0.0    0.0 0.000    1.0 /
  31   33  0.000000  0.000000  1.000000   400101   391231   0 1  0    0.0    0.0    0.0    0.0   1 1.000   0 0.000   0 0.000   0 0.000   0 0.000   0 0.000   0 0.000   0 0.000   0 0.000   0 0.000   0 0.000   0 0.000  0 0 
    308 "Carrel      " 138.00     310 "Caruso      " 138.00  "1 "  1 "                                " :  1  0.043000  0.165000  0.045000  175.0    0.0    0.0    0.0 0.000    1.0 /
  31   33  0.000000  0.000000  1.000000   400101   391231   0 1  0    0.0    0.0    0.0    0.0   1 1.000   0 0.000   0 0.000   0 0.000   0 0.000   0 0.000   0 0.000   0 0.000   0 0.000   0 0.000   0 0.000   0 0.000  0 0 
    309 "Carter      " 138.00     311 "Cary        " 230.00  "1 "  1 "                                " :  1  0.002000  0.084000  0.000000  400.0    0.0    0.0    0.0 0.000    1.0 /
  31   33  0.000000  0.000000  1.000000   400101   391231   0 1  0    0.0    0.0    0.0    0.0   1 1.000   0 0.000   0 0.000   0 0.000   0 0.000   0 0.000   0 0.000   0 0.000   0 0.000   0 0.000   0 0.000   0 0.000  0 0 
    309 "Carter      " 138.00     312 "Caxton      " 230.00  "1 "  1 "                                " :  1  0.002000  0.084000  0.000000  400.0    0.0    0.0    0.0 0.000    1.0 /
  31   33  0.000000  0.000000  1.000000   400101   391231   0 1  0    0.0    0.0    0.0    0.0   1 1.000   0 0.000   0 0.000   0 0.000   0 0.000   0 0.000   0 0.000   0 0.000   0 0.000   0 0.000   0 0.000   0 0.000  0 0 
    310 "Caruso      " 138.00     311 "Cary        " 230.00  "1 "  1 "                                " :  1  0.002000  0.084000  0.000000  400.0    0.0    0.0    0.0 0.000    1.0 /
  31   33  0.000000  0.000000  1.000000   400101   391231   0 1  0    0.0    0.0    0.0    0.0   1 1.000   0 0.000   0 0.000   0 0.000   0 0.000   0 0.000   0 0.000   0 0.000   0 0.000   0 0.000   0 0.000   0 0.000  0 0 
    310 "Caruso      " 138.00     312 "Caxton      " 230.00  "1 "  1 "                                " :  1  0.002000  0.084000  0.000000  400.0    0.0    0.0    0.0 0.000    1.0 /
  31   33  0.000000  0.000000  1.000000   400101   391231   0 1  0    0.0    0.0    0.0    0.0   1 1.000   0 0.000   0 0.000   0 0.000   0 0.000   0 0.000   0 0.000   0 0.000   0 0.000   0 0.000   0 0.000   0 0.000  0 0 
    311 "Cary        " 230.00     313 "Cecil       " 230.00  "1 "  1 "                                " :  1  0.006000  0.048000  0.100000  500.0    0.0    0.0    0.0 0.000    1.0 /
  32   34  0.000000  0.000000  1.000000   400101   391231   0 1  0    0.0    0.0    0.0    0.0   1 1.000   0 0.000   0 0.000   0 0.000   0 0.000   0 0.000   0 0.000   0 0.000   0 0.000   0 0.000   0 0.000   0 0.000  0 0 
    311 "Cary        " 230.00     314 "Chain       " 230.00  "1 "  1 "                                " :  1  0.005000  0.042000  0.088000  500.0    0.0    0.0    0.0 0.000    1.0 /
  32   36  0.000000  0.000000  1.000000   400101   391231   0 1  0    0.0    0.0    0.0    0.0   1 1.000   0 0.000   0 0.000   0 0.000   0 0.000   0 0.000   0 0.000   0 0.000   0 0.000   0 0.000   0 0.000   0 0.000  0 0 
    312 "Caxton      " 230.00     313 "Cecil       " 230.00  "1 "  1 "                                " :  1  0.006000  0.048000  0.100000    0.0    0.0    0.0    0.0 0.000    1.0 /
  32   34  0.000000  0.000000  1.000000   400101   391231   0 1  0    0.0    0.0    0.0    0.0   1 1.000   0 0.000   0 0.000   0 0.000   0 0.000   0 0.000   0 0.000   0 0.000   0 0.000   0 0.000   0 0.000   0 0.000  0 0 
    312 "Caxton      " 230.00     323 "Comte       " 230.00  "1 "  1 "                                " :  1  0.012000  0.097000  0.203000  500.0    0.0    0.0    0.0 0.000    1.0 /
  32   35  0.000000  0.000000  1.000000   400101   391231   0 1  0    0.0    0.0    0.0    0.0   1 1.000   0 0.000   0 0.000   0 0.000   0 0.000   0 0.000   0 0.000   0 0.000   0 0.000   0 0.000   0 0.000   0 0.000  0 0 
    313 "Cecil       " 230.00     323 "Comte       " 230.00  "1 "  1 "                                " :  1  0.011000  0.087000  0.182000  500.0    0.0    0.0    0.0 0.000    1.0 /
  32   35  0.000000  0.000000  1.000000   400101   391231   0 1  0    0.0    0.0    0.0    0.0   1 1.000   0 0.000   0 0.000   0 0.000   0 0.000   0 0.000   0 0.000   0 0.000   0 0.000   0 0.000   0 0.000   0 0.000  0 0 
    314 "Chain       " 230.00     316 "Chifa       " 230.00  "1 "  1 "                                " :  1  0.005000  0.059000  0.082000  500.0    0.0    0.0    0.0 0.000    1.0 /
  32   36  0.000000  0.000000  1.000000   400101   391231   0 1  0    0.0    0.0    0.0    0.0   1 1.000   0 0.000   0 0.000   0 0.000   0 0.000   0 0.000   0 0.000   0 0.000   0 0.000   0 0.000   0 0.000   0 0.000  0 0 
    315 "Chase       " 230.00     316 "Chifa       " 230.00  "1 "  1 "                                " :  1  0.002000  0.017000  0.036000  500.0    0.0    0.0    0.0 0.000    1.0 /
  32   36  0.000000  0.000000  1.000000   400101   391231   0 1  0    0.0    0.0    0.0    0.0   1 1.000   0 0.000   0 0.000   0 0.000   0 0.000   0 0.000   0 0.000   0 0.000   0 0.000   0 0.000   0 0.000   0 0.000  0 0 
    315 "Chase       " 230.00     321 "Cobb        " 230.00  "1 "  1 "                                " :  1  0.006000  0.049000  0.103000  500.0    0.0    0.0    0.0 0.000    1.0 /
  32   37  0.000000  0.000000  1.000000   400101   391231   0 1  0    0.0    0.0    0.0    0.0   1 1.000   0 0.000   0 0.000   0 0.000   0 0.000   0 0.000   0 0.000   0 0.000   0 0.000   0 0.000   0 0.000   0 0.000  0 0 
    315 "Chase       " 230.00     324 "Curie       " 230.00  "1 "  1 "                                " :  1  0.007000  0.052000  0.109000  500.0    0.0    0.0    0.0 0.000    1.0 /
  32   36  0.000000  0.000000  1.000000   400101   391231   0 1  0    0.0    0.0    0.0    0.0   1 1.000   0 0.000   0 0.000   0 0.000   0 0.000   0 0.000   0 0.000   0 0.000   0 0.000   0 0.000   0 0.000   0 0.000  0 0 
    316 "Chifa       " 230.00     317 "Chuhsi      " 230.00  "1 "  1 "                                " :  1  0.003000  0.026000  0.055000  500.0    0.0    0.0    0.0 0.000    1.0 /
  32   37  0.000000  0.000000  1.000000   400101   391231   0 1  0    0.0    0.0    0.0    0.0   1 1.000   0 0.000   0 0.000   0 0.000   0 0.000   0 0.000   0 0.000   0 0.000   0 0.000   0 0.000   0 0.000   0 0.000  0 0 
...
transformer data  [   0]                                     ck   ------------long_id_------------     st ty --no---    reg_name          zt         int                              tert                   ar zone  tbase   ps_r    ps_x    pt_r    pt_x    ts_r    ts_x
generator data  [  33]         id   ------------long_id_------------    st ---no--     reg_name           prf  qrf  ar zone   pgen   pmax   pmin   qgen   qmax   qmin   mbase  cmp_r cmp_x gen_r gen_x           hbus                         tbus                date_in date_out pid N
    101 "Abel        " 138.00 "1 " "                                " :  1     101 "Abel        " 138.00  0.000000  1.000000  11   11 172.000003 1000.000000   0.000000 28.200001 28.200001 28.200001 100.0000 0.000 0.000 0.000 1.000      -1 "            "   0.00      -1 "            "   0.00    400101   391231   0 0 /
 0.0000 0.0000 1.0000    1 1.000   0 0.000   0 0.000   0 0.000   0 0.000   0 0.000   0 0.000   0 0.000   0   0   0   0   0   0   0    0.0 0 1  1.000000
    102 "Adams       " 138.00 "1 " "                                " :  1     102 "Adams       " 138.00  0.000000  1.000000  11   12 172.000003 1000.000000   0.000000 14.000000 14.000000 14.000000 100.0000 0.000 0.000 0.000 1.000      -1 "            "   0.00      -1 "            "   0.00    400101   391231   0 0 /
 0.0000 0.0000 1.0000    1 1.000   0 0.000   0 0.000   0 0.000   0 0.000   0 0.000   0 0.000   0 0.000   0   0   0   0   0   0   0    0.0 0 1  1.000000
    107 "Alder       " 138.00 "1 " "                                " :  1     107 "Alder       " 138.00  0.000000  1.000000  11   12 240.000010 1000.000000   0.000000 51.599997 51.599997 51.599997 100.0000 0.000 0.000 0.000 1.000      -1 "            "   0.00      -1 "            "   0.00    400101   391231   0 0 /
 0.0000 0.0000 1.0000    1 1.000   0 0.000   0 0.000   0 0.000   0 0.000   0 0.000   0 0.000   0 0.000   0   0   0   0   0   0   0    0.0 0 1  1.000000
    113 "Arne        " 230.00 "1 " "                                " :  1     113 "Arne        " 230.00  0.000000  1.000000  12   14 285.299993 10000.000000   0.000000 122.000003 122.000003 122.000003 100.0000 0.000 0.000 0.000 1.000      -1 "            "   0.00      -1 "            "   0.00    400101   391231   0 0 /
 0.0000 0.0000 1.0000    1 1.000   0 0.000   0 0.000   0 0.000   0 0.000   0 0.000   0 0.000   0 0.000   0   0   0   0   0   0   0    0.0 0 1  1.000000
    114 "Arnold      " 230.00 "1 " "                                " :  1     114 "Arnold      " 230.00  0.000000  1.000000  12   16   0.000000 1000.000000   0.000000 13.699999 13.699999 13.699999 100.0000 0.000 0.000 0.000 1.000      -1 "            "   0.00      -1 "            "   0.00    400101   391231   0 0 /
 0.0000 0.0000 1.0000    1 1.000   0 0.000   0 0.000   0 0.000   0 0.000   0 0.000   0 0.000   0 0.000   0   0   0   0   0   0   0    0.0 0 1  1.000000
    115 "Arthur      " 230.00 "1 " "                                " :  1     115 "Arthur      " 230.00  0.000000  1.000000  12   16 215.000010 1000.000000   0.000000  0.000000  0.000000  0.000000 100.0000 0.000 0.000 0.000 1.000      -1 "            "   0.00      -1 "            "   0.00    400101   391231   0 0 /
 0.0000 0.0000 1.0000    1 1.000   0 0.000   0 0.000   0 0.000   0 0.000   0 0.000   0 0.000   0 0.000   0   0   0   0   0   0   0    0.0 0 1  1.000000
    116 "Asser       " 230.00 "1 " "                                " :  1     116 "Asser       " 230.00  0.000000  1.000000  12   16 154.999995 1000.000000   0.000000 25.220001 25.220001 25.220001 100.0000 0.000 0.000 0.000 1.000      -1 "            "   0.00      -1 "            "   0.00    400101   391231   0 0 /
 0.0000 0.0000 1.0000    1 1.000   0 0.000   0 0.000   0 0.000   0 0.000   0 0.000   0 0.000   0 0.000   0   0   0   0   0   0   0    0.0 0 1  1.000000
    118 "Astor       " 230.00 "1 " "                                " :  1     118 "Astor       " 230.00  0.000000  1.000000  12   17 400.000000 1000.000000   0.000000 25.220001 25.220001 25.220001 100.0000 0.000 0.000 0.000 1.000      -1 "            "   0.00      -1 "            "   0.00    400101   391231   0 0 /
 0.0000 0.0000 1.0000    1 1.000   0 0.000   0 0.000   0 0.000   0 0.000   0 0.000   0 0.000   0 0.000   0   0   0   0   0   0   0    0.0 0 1  1.000000
    121 "Attlee      " 230.00 "1 " "                                " :  1     121 "Attlee      " 230.00  0.000000  1.000000  12   17 400.000000 1000.000000   0.000000 108.200002 108.200002 108.200002 100.0000 0.000 0.000 0.000 1.000      -1 "            "   0.00      -1 "            "   0.00    400101   391231   0 0 /
 0.0000 0.0000 1.0000    1 1.000   0 0.000   0 0.000   0 0.000   0 0.000   0 0.000   0 0.000   0 0.000   0   0   0   0   0   0   0    0.0 0 1  1.000000
    122 "Aubrey      " 230.00 "1 " "                                " :  1     122 "Aubrey      " 230.00  0.000000  1.000000  12   17 300.000000 1000.000000   0.000000 -24.800000 -24.800000 -24.800000 100.0000 0.000 0.000 0.000 1.000      -1 "            "   0.00      -1 "            "   0.00    400101   391231   0 0 /
 0.0000 0.0000 1.0000    1 1.000   0 0.000   0 0.000   0 0.000   0 0.000   0 0.000   0 0.000   0 0.000   0   0   0   0   0   0   0    0.0 0 1  1.000000
    123 "Austen      " 230.00 "1 " "                                " :  1     123 "Austen      " 230.00  0.000000  1.000000  12   15 650.399637 1000.000000   0.000000 -500.111294 9900.000000 -9900.000000 100.0000 0.000 0.000 0.000 1.000      -1 "            "   0.00      -1 "            "   0.00    400101   391231   0 0 /
 0.0000 0.0000 1.0000    1 1.000   0 0.000   0 0.000   0 0.000   0 0.000   0 0.000   0 0.000   0 0.000   0   0   0   0   0   0   0    0.0 0 0  1.000000
    201 "Bach        " 138.00 "1 " "                                " :  1     201 "Bach        " 138.00  0.000000  1.000000  21   21 172.000003 1000.000000   0.000000 28.200001 28.200001 28.200001 100.0000 0.000 0.000 0.000 1.000      -1 "            "   0.00      -1 "            "   0.00    400101   391231   0 0 /
 0.0000 0.0000 1.0000    1 1.000   0 0.000   0 0.000   0 0.000   0 0.000   0 0.000   0 0.000   0 0.000   0   0   0   0   0   0   0    0.0 0 1  1.000000
...